19
Coordinates from ORCA-job /Users/mariochiaparini/Desktop/Rdkir2Orca/Molecules/input
  C   3.65325000000000     -6.13723000000000      2.94503000000000
  C   3.33944000000000     -6.99774000000000      4.00299000000000
  C   2.30786000000000     -6.66930000000000      4.88899000000000
  C   1.58950000000000     -5.48095000000000      4.71687000000000
  C   1.90403000000000     -4.62129000000000      3.65982000000000
  C   2.93539000000000     -4.94903000000000      2.77521000000000
  H   4.45113000000000     -6.39009000000000      2.25916000000000
  H   3.89545000000000     -7.91679000000000      4.13540000000000
  H   2.06534000000000     -7.33452000000000      5.70781000000000
  H   0.79108000000000     -5.22403000000000      5.39982000000000
  H   0.89730000000000      1.73525000000000     -0.53665000000000
  H   3.17797000000000     -4.28199000000000      1.96007000000000
  O   1.59567000000000     -4.92082000000000      1.70207000000000
  S   0.59520000000000     -4.53840000000000      2.80944000000000
  O   0.56234000000000     -3.07276000000000      2.35961000000000
  O   -0.74648000000000     -4.94548000000000      1.83155000000000
  O   2.31381000000000      0.12375000000000      1.50091000000000
  H   -1.47012000000000     -5.15027000000000      2.47585000000000
  H   1.46093000000000     -0.37745000000000     -2.95959000000000
